/*--------------------------------*- C++ -*----------------------------------*\
  =========                 |
  \\      /  F ield         | OpenFOAM: The Open Source CFD Toolbox
   \\    /   O peration     | Website:  https://openfoam.org
    \\  /    A nd           | Version:  6
     \\/     M anipulation  |
\*---------------------------------------------------------------------------*/
FoamFile
{
    version     2.0;
    format      ascii;
    class       polyBoundaryMesh;
    location    "constant/polyMesh";
    object      boundary;
}
// * * * * * * * * * * * * * * * * * * * * * * * * * * * * * * * * * * * * * //

6
(
    minX
    {
        type            wall;
        inGroups        1(wall);
        nFaces          1;
        startFace       0;
    }
    maxX
    {
        type            wall;
        inGroups        1(wall);
        nFaces          1;
        startFace       1;
    }
    minY
    {
        type            wall;
        inGroups        1(wall);
        nFaces          1;
        startFace       2;
    }
    maxY
    {
        type            wall;
        inGroups        1(wall);
        nFaces          1;
        startFace       3;
    }
    minZ
    {
        type            wall;
        inGroups        1(wall);
        nFaces          1;
        startFace       4;
    }
    maxZ
    {
        type            wall;
        inGroups        1(wall);
        nFaces          1;
        startFace       5;
    }
)

// ************************************************************************* //
