/*--------------------------------*- C++ -*----------------------------------*\
  =========                 |
  \\      /  F ield         | OpenFOAM: The Open Source CFD Toolbox
   \\    /   O peration     | Website:  https://openfoam.org
    \\  /    A nd           | Version:  6
     \\/     M anipulation  |
\*---------------------------------------------------------------------------*/
FoamFile
{
    version     2.0;
    format      ascii;
    class       dictionary;
    object      blockMeshDict;
}
// * * * * * * * * * * * * * * * * * * * * * * * * * * * * * * * * * * * * * //

convertToMeters 0.001; //in mm

vertices
(
	(0 -25 0) //0

	(25 0 0) //1
	
 	(0 25 0) //2

	(-25 0 0) //3

	(0 -25 100) //4

	(25 0 100) //5
	
 	(0 25 100) //6

	(-25 0 100) //7



);

blocks
(
      hex (0 1 2 3 4 5 6 7) (40 40 100) simpleGrading (1 1 1)
);

edges
(
 arc 0 1 (17.6777 -17.6777 0)

 arc 1 2 (17.6777 17.6777 0)

 arc 2 3 (-17.6777 17.6777 0)
 
 arc 3 0 (-17.6777 -17.6777 0)

 arc 4 5 (17.6777 -17.6777 100)

 arc 5 6 (17.6777 17.6777 100)

 arc 6 7 (-17.6777 17.6777 100)
 
 arc 7 4 (-17.6777 -17.6777 100)
);

boundary
(

  minX
    {
        type wall;
        faces
        (
            (0 4 7 3)
        );
    }
     maxX
    {
        type wall;
        faces
        (
            (2 6 5 1)
        );
    }

    minY
    {
        type wall;
        faces
        (
            (0 4 5 1)
        );
    }
     maxY
    {
        type wall;
        faces
        (
            (2 6 7 3)
        );
    }
      minZ
    {
        type wall;
        faces
        (
            (0 1 2 3)
        );
    }
     maxZ
    {
        type wall;
        faces
        (
            (4 5 6 7)
        );
    }


);

mergePatchPairs
(
);

// ************************************************************************* //
