/*--------------------------------*- C++ -*----------------------------------*\
  =========                 |
  \\      /  F ield         | OpenFOAM: The Open Source CFD Toolbox
   \\    /   O peration     | Website:  https://openfoam.org
    \\  /    A nd           | Version:  6
     \\/     M anipulation  |
\*---------------------------------------------------------------------------*/
FoamFile
{
    version     2.0;
    format      ascii;
    class       polyBoundaryMesh;
    location    "constant/polyMesh";
    object      boundary;
}
// * * * * * * * * * * * * * * * * * * * * * * * * * * * * * * * * * * * * * //

6
(
    minX
    {
        type            wall;
        inGroups        1(wall);
        nFaces          4000;
        startFace       470400;
    }
    maxX
    {
        type            wall;
        inGroups        1(wall);
        nFaces          4000;
        startFace       474400;
    }
    minY
    {
        type            wall;
        inGroups        1(wall);
        nFaces          4000;
        startFace       478400;
    }
    maxY
    {
        type            wall;
        inGroups        1(wall);
        nFaces          4000;
        startFace       482400;
    }
    minZ
    {
        type            wall;
        inGroups        1(wall);
        nFaces          1600;
        startFace       486400;
    }
    maxZ
    {
        type            wall;
        inGroups        1(wall);
        nFaces          1600;
        startFace       488000;
    }
)

// ************************************************************************* //
